# ====================
# | Model parameters |
# ====================
#
# Continuous equation parameters
 &PARM01
#
 viscAh=1.E1,
 viscAhGrid=1.E-1,
 viscAz= 1.e-05,
 viscA4=1.E8,
 diffK4T=1.E8,
 diffK4S=1.E8,
 diffKzT=1.e-5,
 diffKzS=1.e-5,
 viscA4GridMax=.1,
 viscC4Leith=2.0,
 viscC4Leithd=2.0,
#
 useAreaViscLength=.TRUE.,
 bottomDragQuadratic = 0.002,
 beta=1.E-11,
 tAlpha=2.E-4,
 sBeta =7.4E-4,
 rhonil=1035.,
 rhoConstFresh=1000.,
 gravity=9.81,
 eosType = 'JMD95Z',
#when using ggl90
 ivdc_kappa=10.,
#
 implicitDiffusion=.true.,
 implicitViscosity=.true.,
 implicitFreeSurface=.true.,
 convertFW2Salt = -1.,
 useRealFreshWaterFlux=.FALSE.,
 useCDscheme=.FALSE.,
 useSingleCpuIO=.TRUE.,
 vectorInvariantMomentum=.TRUE.,
 staggerTimeStep=.TRUE.,
 multiDimAdvection=.TRUE.,
 tempAdvScheme=30,
 saltAdvScheme=30,
#CMM(
 tempVertAdvScheme=3,
 saltVertAdvScheme=3,
 tempImplVertAdv=.TRUE.,
 saltImplVertAdv=.TRUE.,
#CMM)
 useNHMTerms=.FALSE.,
# turn on lopped cells
 hFacMin=0.3,
 hFacMindz=50.,
# set precision of data files
 readBinaryPrec=32,
 writeBinaryPrec=32,
 globalfiles=.FALSE.,
 rotationPeriod=86164.,
 debugLevel=0,
 /

# Elliptic solver parameters
 &PARM02
 cg2dMaxIters = 300,
 cg2dTargetResidual=1.E-8,
 /

# Time stepping parameters
 &PARM03
 nIter0 =        0,
 nTimeSteps =  1600,
# nTimeSteps =  70081,
 deltaTmom   = 1800.0,
 deltaTtracer= 1800.0,
 deltaTClock = 1800.0,
 pickupStrictlyMatch=.FALSE.,
 dumpInitAndLast=.FALSE.
 writePickupAtEnd=.FALSE.,
 pChkptFreq= 0.0,
 dumpFreq=   0.,
 taveFreq=   0.,
# dumpFreq=   31536000.,
# taveFreq=   31536000.,
# diagFreq=    2629830.,
 adjDumpFreq=  0.,
 monitorFreq= 86400.0,
 forcing_In_AB = .FALSE.,
 momDissip_In_AB=.FALSE.,
# epsAB_CD = 0.25,
#when using ab2:
# abEps = 0.1,
#when using ab3:
 doAB_onGtGs=.FALSE.,
 alph_AB=0.5,
 beta_AB=0.281105,
#
 periodicExternalForcing=.TRUE.,
 externForcingPeriod=2629800.,
 externForcingCycle=31557600.,
#
 /

# Gridding parameters
 &PARM04
 usingCartesianGrid=.FALSE.,
 usingSphericalPolarGrid=.TRUE.,
 delX=2160*0.16666667,
 delY= 0.034701, 0.0348, 0.034899, 0.034999, 0.035098, 0.035198, 0.035299, 0.035399, 0.0355, 0.035601, 
       0.035702, 0.035804, 0.035906, 0.036008, 0.03611, 0.036213, 0.036316, 0.036419, 0.036522, 0.036626, 
       0.03673, 0.036835, 0.036939, 0.037044, 0.037149, 0.037255, 0.037361, 0.037467, 0.037573, 0.03768, 
       0.037787, 0.037894, 0.038001, 0.038109, 0.038217, 0.038326, 0.038434, 0.038543, 0.038652, 0.038762, 
       0.038872, 0.038982, 0.039092, 0.039203, 0.039314, 0.039425, 0.039537, 0.039649, 0.039761, 0.039873, 
       0.039986, 0.040099, 0.040212, 0.040326, 0.04044, 0.040554, 0.040669, 0.040784, 0.040899, 0.041014, 
       0.04113, 0.041246, 0.041363, 0.041479, 0.041596, 0.041714, 0.041831, 0.041949, 0.042068, 0.042186, 
       0.042305, 0.042424, 0.042544, 0.042664, 0.042784, 0.042904, 0.043025, 0.043146, 0.043267, 0.043389, 
       0.043511, 0.043633, 0.043756, 0.043879, 0.044002, 0.044126, 0.04425, 0.044374, 0.044499, 0.044624, 
       0.044749, 0.044874, 0.045, 0.045126, 0.045253, 0.04538, 0.045507, 0.045635, 0.045762, 0.045891, 
       0.046019, 0.046148, 0.046277, 0.046406, 0.046536, 0.046666, 0.046797, 0.046928, 0.047059, 0.04719, 
       0.047322, 0.047454, 0.047587, 0.04772, 0.047853, 0.047986, 0.04812, 0.048254, 0.048389, 0.048524, 
       0.048659, 0.048795, 0.04893, 0.049067, 0.049203, 0.04934, 0.049477, 0.049615, 0.049753, 0.049891, 
       0.05003, 0.050169, 0.050308, 0.050448, 0.050588, 0.050728, 0.050869, 0.05101, 0.051152, 0.051293, 
       0.051436, 0.051578, 0.051721, 0.051864, 0.052008, 0.052152, 0.052296, 0.05244, 0.052585, 0.052731, 
       0.052876, 0.053022, 0.053169, 0.053316, 0.053463, 0.05361, 0.053758, 0.053906, 0.054055, 0.054204, 
       0.054353, 0.054503, 0.054653, 0.054803, 0.054954, 0.055105, 0.055256, 0.055408, 0.05556, 0.055713, 
       0.055866, 0.056019, 0.056173, 0.056327, 0.056481, 0.056636, 0.056791, 0.056947, 0.057102, 0.057259, 
       0.057415, 0.057572, 0.05773, 0.057887, 0.058045, 0.058204, 0.058363, 0.058522, 0.058682, 0.058841, 
       0.059002, 0.059162, 0.059324, 0.059485, 0.059647, 0.059809, 0.059972, 0.060135, 0.060298, 0.060462, 
       0.060626, 0.06079, 0.060955, 0.06112, 0.061286, 0.061452, 0.061618, 0.061785, 0.061952, 0.062119, 
       0.062287, 0.062456, 0.062624, 0.062793, 0.062963, 0.063132, 0.063303, 0.063473, 0.063644, 0.063815, 
       0.063987, 0.064159, 0.064331, 0.064504, 0.064677, 0.064851, 0.065025, 0.065199, 0.065374, 0.065549, 
       0.065725, 0.065901, 0.066077, 0.066254, 0.066431, 0.066608, 0.066786, 0.066964, 0.067143, 0.067321, 
       0.067501, 0.067681, 0.067861, 0.068041, 0.068222, 0.068403, 0.068585, 0.068767, 0.068949, 0.069132, 
       0.069315, 0.069499, 0.069683, 0.069867, 0.070052, 0.070237, 0.070422, 0.070608, 0.070794, 0.070981, 
       0.071168, 0.071355, 0.071543, 0.071731, 0.07192, 0.072109, 0.072298, 0.072488, 0.072678, 0.072868, 
       0.073059, 0.07325, 0.073442, 0.073634, 0.073826, 0.074019, 0.074212, 0.074406, 0.074599, 0.074794, 
       0.074988, 0.075183, 0.075379, 0.075574, 0.075771, 0.075967, 0.076164, 0.076361, 0.076559, 0.076757, 
       0.076955, 0.077154, 0.077353, 0.077553, 0.077752, 0.077953, 0.078153, 0.078354, 0.078556, 0.078757, 
       0.078959, 0.079162, 0.079365, 0.079568, 0.079771, 0.079975, 0.08018, 0.080384, 0.080589, 0.080795, 
       0.081, 0.081206, 0.081413, 0.08162, 0.081827, 0.082035, 0.082242, 0.082451, 0.082659, 0.082868, 
       0.083078, 0.083287, 0.083497, 0.083708, 0.083918, 0.084129, 0.084341, 0.084553, 0.084765, 0.084977, 
       0.08519, 0.085403, 0.085617, 0.085831, 0.086045, 0.086259, 0.086474, 0.086689, 0.086905, 0.087121, 
       0.087337, 0.087554, 0.08777, 0.087988, 0.088205, 0.088423, 0.088641, 0.08886, 0.089079, 0.089298, 
       0.089517, 0.089737, 0.089957, 0.090178, 0.090398, 0.090619, 0.090841, 0.091063, 0.091285, 0.091507, 
       0.09173, 0.091952, 0.092176, 0.092399, 0.092623, 0.092847, 0.093072, 0.093296, 0.093521, 0.093747, 
       0.093972, 0.094198, 0.094424, 0.094651, 0.094878, 0.095105, 0.095332, 0.09556, 0.095788, 0.096016, 
       0.096244, 0.096473, 0.096702, 0.096931, 0.097161, 0.09739, 0.09762, 0.097851, 0.098081, 0.098312, 
       0.098543, 0.098774, 0.099006, 0.099238, 0.09947, 0.099702, 0.099935, 0.10017, 0.1004, 0.10063, 
       0.10087, 0.1011, 0.10133, 0.10157, 0.1018, 0.10204, 0.10227, 0.10251, 0.10274, 0.10298, 
       0.10321, 0.10345, 0.10369, 0.10392, 0.10416, 0.10439, 0.10463, 0.10487, 0.10511, 0.10534, 
       0.10558, 0.10582, 0.10606, 0.10629, 0.10653, 0.10677, 0.10701, 0.10725, 0.10749, 0.10773, 
       0.10797, 0.1082, 0.10844, 0.10868, 0.10892, 0.10916, 0.1094, 0.10964, 0.10988, 0.11012, 
       0.11036, 0.11061, 0.11085, 0.11109, 0.11133, 0.11157, 0.11181, 0.11205, 0.11229, 0.11253, 
       0.11278, 0.11302, 0.11326, 0.1135, 0.11374, 0.11398, 0.11423, 0.11447, 0.11471, 0.11495, 
       0.11519, 0.11544, 0.11568, 0.11592, 0.11616, 0.11641, 0.11665, 0.11689, 0.11713, 0.11738, 
       0.11762, 0.11786, 0.1181, 0.11835, 0.11859, 0.11883, 0.11907, 0.11931, 0.11956, 0.1198, 
       0.12004, 0.12028, 0.12053, 0.12077, 0.12101, 0.12125, 0.12149, 0.12174, 0.12198, 0.12222, 
       0.12246, 0.1227, 0.12294, 0.12319, 0.12343, 0.12367, 0.12391, 0.12415, 0.12439, 0.12463, 
       0.12487, 0.12511, 0.12535, 0.12559, 0.12583, 0.12607, 0.12631, 0.12655, 0.12679, 0.12703, 
       0.12727, 0.12751, 0.12775, 0.12799, 0.12823, 0.12846, 0.1287, 0.12894, 0.12918, 0.12941, 
       0.12965, 0.12989, 0.13013, 0.13036, 0.1306, 0.13083, 0.13107, 0.1313, 0.13154, 0.13177, 
       0.13201, 0.13224, 0.13248, 0.13271, 0.13294, 0.13318, 0.13341, 0.13364, 0.13387, 0.13411, 
       0.13434, 0.13457, 0.1348, 0.13503, 0.13526, 0.13549, 0.13572, 0.13595, 0.13618, 0.13641, 
       0.13663, 0.13686, 0.13709, 0.13731, 0.13754, 0.13777, 0.13799, 0.13822, 0.13844, 0.13866, 
       0.13889, 0.13911, 0.13933, 0.13956, 0.13978, 0.14, 0.14022, 0.14044, 0.14066, 0.14088, 
       0.1411, 0.14132, 0.14153, 0.14175, 0.14197, 0.14218, 0.1424, 0.14261, 0.14283, 0.14304, 
       0.14326, 0.14347, 0.14368, 0.14389, 0.1441, 0.14431, 0.14808, 0.16326, 0.17999, 0.19844, 
       0.21878, 0.24121, 0.26593, 0.29319, 0.32324, 0.35638, 0.3929, 0.43318, 0.47758, 0.52653, 
       0.5805, 0.64, 0.7056, 0.77792, 0.85766, 0.96125, 1, 1, 1, 1, 
       1, 1, 1, 1, 1, 1, 1, 1, 1, 1, 
       1, 1, 1, 1, 1, 1, 1, 1, 1, 1, 
 delZ= 4.2, 5, 
       5.9, 6.9, 8.5, 9.5, 10, 10, 10, 10, 10, 10, 
       10, 10, 10, 10, 13, 17, 20, 20, 20, 20, 
       20, 20, 22, 30, 38, 45, 50, 50, 53, 72, 
       100, 100, 100, 100, 100, 150, 200, 200, 200, 220, 
       300, 380, 400, 400, 400, 400, 400, 400, 400, 400, 
 ygOrigin = -78.0,
 xgOrigin = 0.0,
 /

# Input datasets
 &PARM05
#  bathyFile = 'SO6_MS_SO3_SOSE_12_bathy2.bin',
#  hydrogThetaFile='THETA_SO6_FromSO3i105.bin',
#  hydrogSaltFile='SALT_SO6_FromSO3i105.bin',
#  uVelInitFile='UVEL_SO6_FromSO3i105.bin',
  bathyFile = 'SO6_SOSE_12_bathy3.bin',
#  hydrogThetaFile='THETA_SO6_FromSO3i105.bin',
#  hydrogSaltFile='SALT_SO6_FromSO3i105.bin',
#  uVelInitFile='UVEL_SO6_FromSO3i105.bin',
#  vVelInitFile='VVEL_SO6_FromSO3i105.bin',
#  vVelInitFile='VVEL_SO6_FromSO3i105.bin',
  hydrogThetaFile='THETA_init_fromSO3i105v1.data',
  hydrogSaltFile='SALT_init_fromSO3i105v1.data',
  uVelInitFile='UVEL_init_fromSO3i105v1.data',
  vVelInitFile='VVEL_init_fromSO3i105v1.data',
#  adTapeDir = '/tmp/',
#  mdsioLocalDir = '/tmp/',
 /
