# ====================
# | Model parameters |
# ====================
#
# Continuous equation parameters
 &PARM01
# diffKhT=1.E0,
# diffKhS=1.E0,
 viscA4=1.E8,
 diffK4T=1.E8,
 diffK4S=1.E8,
# bottomDraglinear=1.E-3,
# viscAh=1.E1,
# viscAhGrid=1.E-2,
 viscAz= 1.e-05,
# DM uses TRUE
 no_slip_sides = .FALSE.,
 no_slip_bottom = .FALSE.,
 diffKzT=1.e-5,
 diffKzS=1.e-5,
 beta=1.E-11,
 tAlpha=2.E-4,
 sBeta =7.4E-4,
 viscC4Leith=2.0,
 viscC4Leithd=2.0,
 viscA4GridMax=1.0,
 useAreaViscLength=.TRUE.,
 highOrderVorticity  = .TRUE.,
 bottomDragQuadratic = 0.002,
#when using ggl90
  ivdc_kappa=10.,
# tempAdvScheme=7,
# saltAdvScheme=7,
#CMM(
 tempVertAdvScheme=3,
 saltVertAdvScheme=3,
 tempImplVertAdv=.TRUE.,
 saltImplVertAdv=.TRUE.,
#CMM)
#CMM? temp_EvPrRn=0.,
#CMM? implicSurfPress = 0.6,
#CMM? implicDiv2DFlow = 0.6,
#END 2190
#
 rhonil=1035.,
 rhoConstFresh=1000.,
 gravity=9.81,
 eosType = 'JMD95Z',
 implicitDiffusion=.true.,
 implicitViscosity=.true.,
 implicitFreeSurface=.true.,
 convertFW2Salt = -1.,
 useRealFreshWaterFlux=.FALSE.,
 useCDscheme=.FALSE.,
 useSingleCpuIO=.TRUE.,
 vectorInvariantMomentum=.TRUE.,
 staggerTimeStep=.TRUE.,
 multiDimAdvection=.TRUE.,
 tempAdvScheme=33,
 saltAdvScheme=33,
 useNHMTerms=.FALSE.,
# turn on lopped cells
 hFacMin=0.3,
 hFacMindz=50.,
# set precision of data files
 readBinaryPrec=32,
 writeBinaryPrec=32,
 globalfiles=.FALSE.,
 rotationPeriod=86164.,
 debugLevel=0,
 /

# Elliptic solver parameters
 &PARM02
 cg2dMaxIters = 300,
 cg2dTargetResidual=1.E-8,
 /

# Time stepping parameters
 &PARM03
#2005a 2005b
 nIter0 =   0,
# nIter0 = 52560,
#2006a 2006b
# nIter0 = 105120,
# nIter0 = 157680,
# nIter0 = 210240,
# nIter0 = 262800,
# nIter0 = 315360,
# nIter0 = 367920,
# nTimeSteps =  86401,
 nTimeSteps =  1441,
 deltaTmom   = 300.0,
 deltaTtracer= 300.0,
 deltaTClock = 300.0,
 pickupStrictlyMatch=.FALSE.,
 dumpInitAndLast=.FALSE.,
# pChkptFreq= 300.,
 pChkptFreq= 15768000.,
# pChkptFreq= 13046400.,
 writePickupAtEnd=.FALSE.,
 dumpFreq=   0.,
 taveFreq=   0.,
# diagFreq=    2629830.,
 adjDumpFreq=  0.,
 monitorFreq= 21600,
 forcing_In_AB = .FALSE.,
 momDissip_In_AB=.FALSE.,
#when using ab2:
# abEps = 0.1,
#when using ab3:
 doAB_onGtGs=.FALSE.,
 alph_AB=0.5,
 beta_AB=0.281105,
 /

# Gridding parameters
 &PARM04
 usingCartesianGrid=.FALSE.,
 usingSphericalPolarGrid=.TRUE.,
 delX=4320*0.08333333333333,
 delY= 0.017338, 0.017363, 0.017388, 0.017412, 0.017437, 0.017462, 0.017487, 0.017512, 0.017537, 0.017562,
       0.017587, 0.017612, 0.017637, 0.017662, 0.017687, 0.017712, 0.017737, 0.017762, 0.017788, 0.017813,
       0.017838, 0.017864, 0.017889, 0.017915, 0.01794, 0.017966, 0.017991, 0.018017, 0.018042, 0.018068,
       0.018094, 0.018119, 0.018145, 0.018171, 0.018197, 0.018222, 0.018248, 0.018274, 0.0183, 0.018326,
       0.018352, 0.018378, 0.018404, 0.01843, 0.018457, 0.018483, 0.018509, 0.018535, 0.018562, 0.018588,
       0.018614, 0.018641, 0.018667, 0.018694, 0.01872, 0.018747, 0.018773, 0.0188, 0.018827, 0.018853,
       0.01888, 0.018907, 0.018934, 0.01896, 0.018987, 0.019014, 0.019041, 0.019068, 0.019095, 0.019122,
       0.019149, 0.019176, 0.019203, 0.019231, 0.019258, 0.019285, 0.019312, 0.01934, 0.019367, 0.019395,
       0.019422, 0.01945, 0.019477, 0.019505, 0.019532, 0.01956, 0.019588, 0.019615, 0.019643, 0.019671,
       0.019699, 0.019726, 0.019754, 0.019782, 0.01981, 0.019838, 0.019866, 0.019894, 0.019923, 0.019951,
       0.019979, 0.020007, 0.020035, 0.020064, 0.020092, 0.02012, 0.020149, 0.020177, 0.020206, 0.020234,
       0.020263, 0.020291, 0.02032, 0.020349, 0.020378, 0.020406, 0.020435, 0.020464, 0.020493, 0.020522,
       0.020551, 0.02058, 0.020609, 0.020638, 0.020667, 0.020696, 0.020725, 0.020754, 0.020784, 0.020813,
       0.020842, 0.020872, 0.020901, 0.02093, 0.02096, 0.020989, 0.021019, 0.021049, 0.021078, 0.021108,
       0.021138, 0.021167, 0.021197, 0.021227, 0.021257, 0.021287, 0.021317, 0.021347, 0.021377, 0.021407,
       0.021437, 0.021467, 0.021497, 0.021528, 0.021558, 0.021588, 0.021618, 0.021649, 0.021679, 0.02171,
       0.02174, 0.021771, 0.021801, 0.021832, 0.021863, 0.021893, 0.021924, 0.021955, 0.021986, 0.022017,
       0.022047, 0.022078, 0.022109, 0.02214, 0.022171, 0.022203, 0.022234, 0.022265, 0.022296, 0.022327,
       0.022359, 0.02239, 0.022421, 0.022453, 0.022484, 0.022516, 0.022547, 0.022579, 0.022611, 0.022642,
       0.022674, 0.022706, 0.022738, 0.022769, 0.022801, 0.022833, 0.022865, 0.022897, 0.022929, 0.022961,
       0.022993, 0.023026, 0.023058, 0.02309, 0.023122, 0.023155, 0.023187, 0.023219, 0.023252, 0.023284,
       0.023317, 0.02335, 0.023382, 0.023415, 0.023447, 0.02348, 0.023513, 0.023546, 0.023579, 0.023612,
       0.023645, 0.023678, 0.023711, 0.023744, 0.023777, 0.02381, 0.023843, 0.023876, 0.02391, 0.023943,
       0.023976, 0.02401, 0.024043, 0.024077, 0.02411, 0.024144, 0.024178, 0.024211, 0.024245, 0.024279,
       0.024313, 0.024346, 0.02438, 0.024414, 0.024448, 0.024482, 0.024516, 0.02455, 0.024585, 0.024619,
       0.024653, 0.024687, 0.024722, 0.024756, 0.02479, 0.024825, 0.024859, 0.024894, 0.024928, 0.024963,
       0.024998, 0.025032, 0.025067, 0.025102, 0.025137, 0.025172, 0.025206, 0.025241, 0.025276, 0.025312,
       0.025347, 0.025382, 0.025417, 0.025452, 0.025487, 0.025523, 0.025558, 0.025594, 0.025629, 0.025664,
       0.0257, 0.025736, 0.025771, 0.025807, 0.025843, 0.025878, 0.025914, 0.02595, 0.025986, 0.026022,
       0.026058, 0.026094, 0.02613, 0.026166, 0.026202, 0.026238, 0.026275, 0.026311, 0.026347, 0.026384,
       0.02642, 0.026456, 0.026493, 0.02653, 0.026566, 0.026603, 0.026639, 0.026676, 0.026713, 0.02675,
       0.026787, 0.026824, 0.026861, 0.026898, 0.026935, 0.026972, 0.027009, 0.027046, 0.027083, 0.027121,
       0.027158, 0.027195, 0.027233, 0.02727, 0.027308, 0.027345, 0.027383, 0.02742, 0.027458, 0.027496,
       0.027534, 0.027571, 0.027609, 0.027647, 0.027685, 0.027723, 0.027761, 0.027799, 0.027837, 0.027876,
       0.027914, 0.027952, 0.02799, 0.028029, 0.028067, 0.028106, 0.028144, 0.028183, 0.028221, 0.02826,
       0.028299, 0.028337, 0.028376, 0.028415, 0.028454, 0.028493, 0.028532, 0.028571, 0.02861, 0.028649,
       0.028688, 0.028727, 0.028766, 0.028806, 0.028845, 0.028884, 0.028924, 0.028963, 0.029003, 0.029042,
       0.029082, 0.029122, 0.029161, 0.029201, 0.029241, 0.029281, 0.029321, 0.029361, 0.029401, 0.029441,
       0.029481, 0.029521, 0.029561, 0.029601, 0.029642, 0.029682, 0.029722, 0.029763, 0.029803, 0.029844,
       0.029884, 0.029925, 0.029965, 0.030006, 0.030047, 0.030088, 0.030129, 0.030169, 0.03021, 0.030251,
       0.030292, 0.030333, 0.030374, 0.030416, 0.030457, 0.030498, 0.030539, 0.030581, 0.030622, 0.030664,
       0.030705, 0.030747, 0.030788, 0.03083, 0.030872, 0.030913, 0.030955, 0.030997, 0.031039, 0.031081,
       0.031123, 0.031165, 0.031207, 0.031249, 0.031291, 0.031333, 0.031375, 0.031418, 0.03146, 0.031502,
       0.031545, 0.031587, 0.03163, 0.031673, 0.031715, 0.031758, 0.031801, 0.031843, 0.031886, 0.031929,
       0.031972, 0.032015, 0.032058, 0.032101, 0.032144, 0.032187, 0.03223, 0.032274, 0.032317, 0.03236,
       0.032404, 0.032447, 0.032491, 0.032534, 0.032578, 0.032621, 0.032665, 0.032709, 0.032753, 0.032797,
       0.03284, 0.032884, 0.032928, 0.032972, 0.033016, 0.03306, 0.033105, 0.033149, 0.033193, 0.033237,
       0.033282, 0.033326, 0.033371, 0.033415, 0.03346, 0.033504, 0.033549, 0.033594, 0.033638, 0.033683,
       0.033728, 0.033773, 0.033818, 0.033863, 0.033908, 0.033953, 0.033998, 0.034043, 0.034088, 0.034134,
       0.034179, 0.034224, 0.03427, 0.034315, 0.034361, 0.034406, 0.034452, 0.034497, 0.034543, 0.034589,
       0.034635, 0.034681, 0.034726, 0.034772, 0.034818, 0.034864, 0.03491, 0.034957, 0.035003, 0.035049,
       0.035095, 0.035142, 0.035188, 0.035234, 0.035281, 0.035327, 0.035374, 0.035421, 0.035467, 0.035514,
       0.035561, 0.035607, 0.035654, 0.035701, 0.035748, 0.035795, 0.035842, 0.035889, 0.035936, 0.035984,
       0.036031, 0.036078, 0.036125, 0.036173, 0.03622, 0.036268, 0.036315, 0.036363, 0.03641, 0.036458,
       0.036506, 0.036553, 0.036601, 0.036649, 0.036697, 0.036745, 0.036793, 0.036841, 0.036889, 0.036937,
       0.036985, 0.037034, 0.037082, 0.03713, 0.037179, 0.037227, 0.037275, 0.037324, 0.037373, 0.037421,
       0.03747, 0.037518, 0.037567, 0.037616, 0.037665, 0.037714, 0.037763, 0.037812, 0.037861, 0.03791,
       0.037959, 0.038008, 0.038057, 0.038107, 0.038156, 0.038205, 0.038255, 0.038304, 0.038354, 0.038403,
       0.038453, 0.038502, 0.038552, 0.038602, 0.038652, 0.038701, 0.038751, 0.038801, 0.038851, 0.038901,
       0.038951, 0.039001, 0.039052, 0.039102, 0.039152, 0.039202, 0.039253, 0.039303, 0.039353, 0.039404,
       0.039454, 0.039505, 0.039556, 0.039606, 0.039657, 0.039708, 0.039758, 0.039809, 0.03986, 0.039911,
       0.039962, 0.040013, 0.040064, 0.040115, 0.040167, 0.040218, 0.040269, 0.04032, 0.040372, 0.040423,
       0.040474, 0.040526, 0.040577, 0.040629, 0.040681, 0.040732, 0.040784, 0.040836, 0.040888, 0.040939,
       0.040991, 0.041043, 0.041095, 0.041147, 0.041199, 0.041251, 0.041304, 0.041356, 0.041408, 0.04146,
       0.041513, 0.041565, 0.041617, 0.04167, 0.041722, 0.041775, 0.041828, 0.04188, 0.041933, 0.041986,
       0.042038, 0.042091, 0.042144, 0.042197, 0.04225, 0.042303, 0.042356, 0.042409, 0.042462, 0.042515,
       0.042568, 0.042622, 0.042675, 0.042728, 0.042782, 0.042835, 0.042889, 0.042942, 0.042996, 0.043049,
       0.043103, 0.043157, 0.04321, 0.043264, 0.043318, 0.043372, 0.043426, 0.043479, 0.043533, 0.043587,
       0.043641, 0.043696, 0.04375, 0.043804, 0.043858, 0.043912, 0.043967, 0.044021, 0.044075, 0.04413,
       0.044184, 0.044239, 0.044293, 0.044348, 0.044403, 0.044457, 0.044512, 0.044567, 0.044621, 0.044676,
       0.044731, 0.044786, 0.044841, 0.044896, 0.044951, 0.045006, 0.045061, 0.045116, 0.045172, 0.045227,
       0.045282, 0.045337, 0.045393, 0.045448, 0.045504, 0.045559, 0.045615, 0.04567, 0.045726, 0.045781,
       0.045837, 0.045893, 0.045948, 0.046004, 0.04606, 0.046116, 0.046172, 0.046228, 0.046284, 0.04634,
       0.046396, 0.046452, 0.046508, 0.046564, 0.04662, 0.046676, 0.046733, 0.046789, 0.046845, 0.046902,
       0.046958, 0.047014, 0.047071, 0.047127, 0.047184, 0.047241, 0.047297, 0.047354, 0.04741, 0.047467,
       0.047524, 0.047581, 0.047638, 0.047694, 0.047751, 0.047808, 0.047865, 0.047922, 0.047979, 0.048036,
       0.048094, 0.048151, 0.048208, 0.048265, 0.048322, 0.04838, 0.048437, 0.048494, 0.048552, 0.048609,
       0.048666, 0.048724, 0.048781, 0.048839, 0.048897, 0.048954, 0.049012, 0.049069, 0.049127, 0.049185,
       0.049243, 0.0493, 0.049358, 0.049416, 0.049474, 0.049532, 0.04959, 0.049648, 0.049706, 0.049764,
       0.049822, 0.04988, 0.049938, 0.049996, 0.050055, 0.050113, 0.050171, 0.050229, 0.050288, 0.050346,
       0.050404, 0.050463, 0.050521, 0.05058, 0.050638, 0.050697, 0.050755, 0.050814, 0.050872, 0.050931,
       0.05099, 0.051048, 0.051107, 0.051166, 0.051224, 0.051283, 0.051342, 0.051401, 0.05146, 0.051519,
       0.051577, 0.051636, 0.051695, 0.051754, 0.051813, 0.051872, 0.051931, 0.05199, 0.05205, 0.052109,
       0.052168, 0.052227, 0.052286, 0.052345, 0.052405, 0.052464, 0.052523, 0.052583, 0.052642, 0.052701,
       0.052761, 0.05282, 0.05288, 0.052939, 0.052998, 0.053058, 0.053118, 0.053177, 0.053237, 0.053296,
       0.053356, 0.053415, 0.053475, 0.053535, 0.053594, 0.053654, 0.053714, 0.053774, 0.053833, 0.053893,
       0.053953, 0.054013, 0.054073, 0.054132, 0.054192, 0.054252, 0.054312, 0.054372, 0.054432, 0.054492,
       0.054552, 0.054612, 0.054672, 0.054732, 0.054792, 0.054852, 0.054912, 0.054972, 0.055032, 0.055092,
       0.055152, 0.055213, 0.055273, 0.055333, 0.055393, 0.055453, 0.055513, 0.055574, 0.055634, 0.055694,
       0.055754, 0.055815, 0.055875, 0.055935, 0.055996, 0.056056, 0.056116, 0.056177, 0.056237, 0.056297,
       0.056358, 0.056418, 0.056478, 0.056539, 0.056599, 0.05666, 0.05672, 0.056781, 0.056841, 0.056902,
       0.056962, 0.057022, 0.057083, 0.057143, 0.057204, 0.057264, 0.057325, 0.057385, 0.057446, 0.057507,
       0.057567, 0.057628, 0.057688, 0.057749, 0.057809, 0.05787, 0.05793, 0.057991, 0.058052, 0.058112,
       0.058173, 0.058233, 0.058294, 0.058354, 0.058415, 0.058476, 0.058536, 0.058597, 0.058657, 0.058718,
       0.058779, 0.058839, 0.0589, 0.05896, 0.059021, 0.059082, 0.059142, 0.059203, 0.059263, 0.059324,
       0.059385, 0.059445, 0.059506, 0.059566, 0.059627, 0.059688, 0.059748, 0.059809, 0.059869, 0.05993,
       0.05999, 0.060051, 0.060112, 0.060172, 0.060233, 0.060293, 0.060354, 0.060414, 0.060475, 0.060535,
       0.060596, 0.060656, 0.060717, 0.060777, 0.060838, 0.060898, 0.060959, 0.061019, 0.061079, 0.06114,
       0.0612, 0.061261, 0.061321, 0.061382, 0.061442, 0.061502, 0.061563, 0.061623, 0.061683, 0.061744,
       0.061804, 0.061864, 0.061924, 0.061985, 0.062045, 0.062105, 0.062165, 0.062226, 0.062286, 0.062346,
       0.062406, 0.062466, 0.062526, 0.062587, 0.062647, 0.062707, 0.062767, 0.062827, 0.062887, 0.062947,
       0.063007, 0.063067, 0.063127, 0.063187, 0.063247, 0.063306, 0.063366, 0.063426, 0.063486, 0.063546,
       0.063606, 0.063665, 0.063725, 0.063785, 0.063845, 0.063904, 0.063964, 0.064023, 0.064083, 0.064143,
       0.064202, 0.064262, 0.064321, 0.064381, 0.06444, 0.064499, 0.064559, 0.064618, 0.064678, 0.064737,
       0.064796, 0.064855, 0.064915, 0.064974, 0.065033, 0.065092, 0.065151, 0.06521, 0.065269, 0.065328,
       0.065387, 0.065446, 0.065505, 0.065564, 0.065623, 0.065682, 0.06574, 0.065799, 0.065858, 0.065917,
       0.065975, 0.066034, 0.066092, 0.066151, 0.066209, 0.066268, 0.066326, 0.066385, 0.066443, 0.066501,
       0.06656, 0.066618, 0.066676, 0.066734, 0.066792, 0.06685, 0.066908, 0.066966, 0.067024, 0.067082,
       0.06714, 0.067198, 0.067256, 0.067313, 0.067371, 0.067429, 0.067486, 0.067544, 0.067601, 0.067659,
       0.067716, 0.067774, 0.067831, 0.067888, 0.067946, 0.068003, 0.06806, 0.068117, 0.068174, 0.068231,
       0.068288, 0.068345, 0.068402, 0.068459, 0.068515, 0.068572, 0.068629, 0.068685, 0.068742, 0.068798,
       0.068855, 0.068911, 0.068967, 0.069024, 0.06908, 0.069136, 0.069192, 0.069248, 0.069304, 0.06936,
       0.069416, 0.069472, 0.069528, 0.069583, 0.069639, 0.069695, 0.06975, 0.069806, 0.069861, 0.069916,
       0.069972, 0.070027, 0.070082, 0.070137, 0.070192, 0.070247, 0.070302, 0.070357, 0.070412, 0.070467,
       0.070521, 0.070576, 0.070631, 0.070685, 0.070739, 0.070794, 0.070848, 0.070902, 0.070956, 0.071011,
       0.071065, 0.071119, 0.071172, 0.071226, 0.07128, 0.071334, 0.071387, 0.071441, 0.071494, 0.071548,
       0.071601, 0.071654, 0.071707, 0.07176, 0.071813, 0.071866, 0.071919, 0.071972, 0.072025, 0.072077,
       0.07213, 0.072183, 0.072235, 0.075847, 0.079639, 0.083621, 0.087802, 0.092192, 0.096802, 0.10164,
       0.10672, 0.11206, 0.11766, 0.12355, 0.12972, 0.13621, 0.14302, 0.15017, 0.15768, 0.16556,
       0.17384, 0.18253, 0.19166, 0.20124, 0.21131, 0.22187, 0.23297, 0.24461, 0.25684, 0.26969,
       0.28317, 0.29733, 0.3122, 0.32781, 0.3442, 0.36141, 0.37948, 0.39845, 0.41837, 0.43929,
       0.46125, 0.5, 0.5, 0.5, 0.5, 0.5, 0.5, 0.5, 0.5, 0.5,
       0.5, 0.5, 0.5, 0.5, 0.5, 0.5, 0.5, 0.5, 0.5, 0.5,
       0.5, 0.5, 0.5, 0.5, 0.5, 0.5, 0.5, 0.5, 0.5, 0.5,
       0.5, 0.5, 0.5, 0.5, 0.5, 0.5, 0.5, 0.5, 0.5, 0.5,
       0.5, 0.5, 0.5, 0.5, 0.5, 0.5, 0.5, 0.5, 0.5, 0.5,
 delZ= 2, 2.2, 2.4, 2.6,
       2.8, 3.1, 3.3, 3.6, 4, 4.5, 4.5, 5, 5, 5,
       5, 5, 5, 5, 5, 5, 5, 5, 5, 5,
       5, 5, 5, 5, 5, 5, 5, 5, 6, 7,
       8, 9, 10, 10, 10, 10, 10, 10, 10, 10,
       10, 10, 10, 10, 10, 12, 14, 16, 18, 20,
       22, 23, 25, 25, 25, 25, 25, 28, 32, 40,
       50, 50, 50, 50, 50, 50, 50, 50, 50, 50,
       65, 85, 100, 100, 100, 100, 100, 100, 100, 120,
       140, 160, 180, 200, 200, 200, 200, 200, 200, 200,
       200, 200, 200, 200, 200, 200, 200, 200, 200, 200,
  ygOrigin = -78.0,
  xgOrigin = 0.0,
 /

# Input datasets
 &PARM05
  bathyFile = 'SOSE_12_bathy3.bin',
  uVelInitFile=   'Uini_SO12_V1.bin',
  vVelInitFile=   'Vini_SO12_V1.bin',
  hydrogThetaFile='Tini_SO12_V1.bin',
  hydrogSaltFile= 'Sini_SO12_V1.bin',
#  uVelInitFile=   'Uini_SO12_V2',
#  vVelInitFile=   'Vini_SO12_V2',
#  hydrogThetaFile='Tini_SO12_V2',
#  hydrogSaltFile= 'Sini_SO12_V2',
#USE  uVelInitFile=   'ICs/U.0000315360',
#USE  vVelInitFile=   'ICs/V.0000315360',
#USE  hydrogThetaFile='ICs/T.0000315360',
#USE  hydrogSaltFile= 'ICs/S.0000315360',
#  mdsioLocalDir = '/tmp/',
 /
