# *******************
# ECCO cost functions
# *******************
 &ECCO_COST_NML
 cost_iprec=32,
 cost_yftype='RL',
 /
# ***************************
# ECCO generic cost functions
# ***************************
 &ECCO_GENCOST_NML
#
 /
#
