#
# *******************
# Calendar Parameters
# *******************
 &CAL_NML
 TheCalendar='gregorian',
# TheCalendar='model',
 startDate_1=20050101,
 startDate_2= 030000,
 /
