# *******************
# ECCO cost functions
# *******************
 &ECCO_COST_NML
 cost_iprec=32,
 cost_yftype='RL',
 /
# ***************************
# ECCO generic cost functions
# ***************************
 &ECCO_GENCOST_NML
 gencost_avgperiod(1)  = 'step',
 gencost_barfile(1) = 'm_boxmean_ptracer',
 gencost_mask(1) = 'sose_dic/mask',
 gencost_name(1) = 'drake_dic',
 gencost_outputlevel(1)=1,
 mult_gencost(1) = 1.,
#
 /
#
